Circuit: * C:\Users\berat\Desktop\Electronics 2\Project\Divider Circuit\Draft1.asc

Limiting rise time of source v2 to 0.001
Limiting fall time of source v2 to 0.001
Direct Newton iteration failed to find .op point.  (Use ".option noopiter" to skip.)
Starting Gmin stepping
Gmin = 10
Gmin = 1.07374
Gmin = 0.115292
Gmin = 0.0123794
Gmin = 0.00132923
Gmin = 0.000142725
Gmin = 1.5325e-005
Gmin = 1.6455e-006
Gmin = 1.76685e-007
Gmin = 1.89714e-008
Gmin = 2.03704e-009
Gmin = 2.18725e-010
Gmin = 2.34854e-011
Gmin = 2.52173e-012
Gmin = 2.70769e-013
Gmin = 0
Gmin stepping succeeded in finding the operating point.


Date: Mon Jun 14 15:03:58 2021
Total elapsed time: 0.422 seconds.

tnom = 27
temp = 27
method = modified trap
totiter = 14517
traniter = 13981
tranpoints = 5193
accept = 4152
rejected = 1041
matrix size = 264
fillins = 505
solver = Normal
Thread vector: 9.6/5.5[4] 3.2/2.5[4] 3.3/2.9[2] 0.9/2.9[1]  2592/500
Matrix Compiler1: 34.43 KB object code size  6.4/3.0/[1.5]
Matrix Compiler2: 29.43 KB object code size  3.9/4.7/[1.3]

