Circuit: * C:\Users\berat\Desktop\Electronics 2\Project\Square Root\Draft1.asc

Direct Newton iteration failed to find .op point.  (Use ".option noopiter" to skip.)
Starting Gmin stepping
Gmin = 10
Gmin = 1.07374
vernier = 0.5
vernier = 0.25
vernier = 0.125
vernier = 0.0625
Gmin = 1.10559
vernier = 0.03125
vernier = 0.015625
Gmin = 1.04709
vernier = 0.0208333
vernier = 0.0104167
vernier = 0.00520833
Gmin = 1.0282
vernier = 0.00694444
vernier = 0.00347222
Gmin = 1.01932
vernier = 0.00462963
vernier = 0.00231481
vernier = 0.00308642
vernier = 0.00154321
Gmin = 1.0155
vernier = 0.00205761
vernier = 0.00102881
Gmin = 1.0125
vernier = 0.00137174
vernier = 0.00068587
Gmin = 1.01033
vernier = 0.000914493
vernier = 0.000457247
Gmin = 1.00866
vernier = 0.000609662
Gmin = 1.00731
vernier = 0.000812882
vernier = 0.000406441
vernier = 0.000541921
vernier = 0.000406441
Gmin = 1.00665
vernier = 0.000541921
vernier = 0.000406441
Gmin = 1.00583
Gmin = 0
Gmin stepping failed

Starting source stepping with srcstepmethod=0
Source Step = 3.0303%
Source Step = 33.3333%
Source Step = 63.6364%
Source Step = 93.9394%
Source Step = 95.9754%
Source Step = 96.4489%
Source Step = 96.9223%
Source Step = 97.3958%
Source Step = 97.8693%
vernier = 0.0234375
Source Step = 98.3902%
Source Step = 99.1004%
Source Step = 99.8106%
Source stepping succeeded in finding the operating point.


Date: Mon Jun 07 22:56:57 2021
Total elapsed time: 2.151 seconds.

tnom = 27
temp = 27
method = modified trap
totiter = 29185
traniter = 20054
tranpoints = 10028
accept = 10027
rejected = 1
matrix size = 169
fillins = 523
solver = Normal
Thread vector: 9.4/4.9[3] 5.0/3.3[3] 4.3/3.4[3] 0.7/1.2[1]  2592/500
Matrix Compiler1: 42.74 KB object code size  9.8/5.0/[2.3]
Matrix Compiler2: 22.84 KB object code size  2.5/3.2/[1.4]

