Circuit: * C:\Users\berat\Desktop\Electronics 2\Project\Square\Draft1.asc

Direct Newton iteration failed to find .op point.  (Use ".option noopiter" to skip.)
Starting Gmin stepping
Gmin = 10
Gmin = 1.07374
Gmin = 0.115292
Gmin = 0.0123794
Gmin = 0.00132923
Gmin = 0.000142725
Gmin = 1.5325e-005
Gmin = 1.6455e-006
Gmin = 1.76685e-007
Gmin = 1.89714e-008
Gmin = 2.03704e-009
Gmin = 2.18725e-010
Gmin = 2.34854e-011
Gmin = 2.52173e-012
Gmin = 2.70769e-013
Gmin = 0
Gmin stepping succeeded in finding the operating point.


Date: Mon Jun 14 19:16:20 2021
Total elapsed time: 0.226 seconds.

tnom = 27
temp = 27
method = modified trap
totiter = 2582
traniter = 2034
tranpoints = 1018
accept = 1018
rejected = 0
matrix size = 262
fillins = 471
solver = Normal
Thread vector: 10.3/6.0[4] 3.1/2.2[4] 3.7/2.8[4] 0.9/1.1[1]  2592/500
Matrix Compiler1: 30.98 KB object code size  6.1/2.9/[1.3]
Matrix Compiler2: 28.79 KB object code size  4.4/5.1/[1.3]

