Circuit: * C:\Users\berat\Desktop\Electronics 2\Project\Multiplication Function Circuit\Draft1.asc

Limiting rise time of source v2 to 0.001
Limiting fall time of source v2 to 0.001
Direct Newton iteration failed to find .op point.  (Use ".option noopiter" to skip.)
Starting Gmin stepping
Gmin = 10
Gmin = 1.07374
Gmin = 0.115292
Gmin = 0.0123794
Gmin = 0.00132923
Gmin = 0.000142725
Gmin = 1.5325e-005
Gmin = 1.6455e-006
Gmin = 1.76685e-007
Gmin = 1.89714e-008
Gmin = 2.03704e-009
Gmin = 2.18725e-010
Gmin = 2.34854e-011
Gmin = 2.52173e-012
Gmin = 2.70769e-013
Gmin = 0
Gmin stepping succeeded in finding the operating point.


Date: Mon Jun 14 12:28:25 2021
Total elapsed time: 0.327 seconds.

tnom = 27
temp = 27
method = modified trap
totiter = 9266
traniter = 8714
tranpoints = 3999
accept = 3736
rejected = 263
matrix size = 264
fillins = 500
solver = Normal
Thread vector: 10.0/5.7[4] 3.2/2.5[4] 3.3/3.5[1] 0.9/1.3[1]  2592/500
Matrix Compiler1: 33.88 KB object code size  6.4/2.9/[1.4]
Matrix Compiler2: 29.36 KB object code size  3.7/4.7/[1.6]

